/*---------------------------------------------------------------------------*\
| =========                 |                                                 |
| \\      /  F ield         | OpenFOAM: The Open Source CFD Toolbox           |
|  \\    /   O peration     | Version:  1.3                                   |
|   \\  /    A nd           | Web:      http://www.openfoam.org               |
|    \\/     M anipulation  |                                                 |
\*---------------------------------------------------------------------------*/

FoamFile
{
    version         2.0;
    format          ascii;

    root            "";
    case            "";
    instance        "system";
    local           "";

    class           dictionary;
    object          gmshFoamMonitorDict;
}

// * * * * * * * * * * * * * * * * * * * * * * * * * * * * * * * * * * * * * //

// An example of gmshFoamMonitorDict. Place the dictionary under the
// <case>/system directory.
//
// gmshFoamMonitor works without gmshFoamMonitorDict. In that case it
// runs with stopAt set to "endTime," initialViewOptions and
// viewOptions empty strings.

// Time where monitoring the case directory finishes; "endTime" if
// monitors up to exactly the endTime set in controlDict. Note that
// the final time written to the case directory necessary does not
// exactly match the endTime, because we useally set writeInterval in
// controlDict larger then 1. In such cases if the stopAt is set to
// exactly the endTime in cotrolDict gmshFoamMonitor never finishes;
// you have to manually kill gmshFoamMonitor.
//
//stopAt "endTime";
stopAt "0.5";

// The following settings should show the tutorials/icoFoam/cavity
// case with all the p, U, phi fields comprehensively.

// Initial options given before displaying views (for setting the
// viewing angles etc). Don't forget the last semicolon (";").
//
initialViewOptions "General.Trackball=0;\
    General.RotationX=10;General.RotationY=-15;General.RotationZ=0;";

// Options applied each time a new time view is created (for setting
//  the clipping planes etc). Don't forget the last semicolon (";").
//
viewOptions "View.Axes=3;\
    General.Clip0=4;General.Clip0A=0;General.Clip0C=-1;General.Clip0D=0.005;\
    General.Clip1=16;General.Clip1A=0;General.Clip1C=1;General.Clip1D=-0.005;";

// ************************************************************************* //
